Circuit: * C:\Users\mlste\Documents\ITBA\6 Cuatrimestre\TC\TC_TP2\Ej5\Simulacion\pedal no anda la entrada del opamp.asc

WARNING: Node NC_02 is floating.
WARNING: Node NC_03 is floating.

WARNING: Less than two connections to node N001.  This node is used by R4.
WARNING: Less than two connections to node NC_01.  This node is used by R5.
WARNING: Less than two connections to node NC_02.  This node is used by R6.
WARNING: Less than two connections to node NC_03.  This node is used by C4.
Direct Newton iteration for .op point succeeded.

Date: Mon Aug 13 17:16:56 2018
Total elapsed time: 0.104 seconds.

tnom = 27
temp = 27
method = modified trap
totiter = 7896
traniter = 7878
tranpoints = 2116
accept = 1437
rejected = 679
matrix size = 44
fillins = 41
solver = Normal
Matrix Compiler1: 3.85 KB object code size  0.7/0.4/[0.2]
Matrix Compiler2: 4.07 KB object code size  0.3/0.4/[0.3]

