Circuit: * C:\Users\mlste\Documents\ITBA\6 Cuatrimestre\TC\TC_TP2\Ej5\Simulacion\punto 5.asc

Error on line 20 : r9 0 n001 1 meg
	 Unknown parameter "meg"
Direct Newton iteration for .op point succeeded.

Date: Thu Aug 23 19:36:44 2018
Total elapsed time: 0.059 seconds.

tnom = 27
temp = 27
method = trap
totiter = 14
traniter = 0
tranpoints = 0
accept = 0
rejected = 0
matrix size = 43
fillins = 42
solver = Normal
Matrix Compiler1:     231 opcodes
Matrix Compiler2: 4.14 KB object code size
