Circuit: * C:\Users\mlste\Documents\ITBA\6 Cuatrimestre\TC\TC_TP2\Ej5\Simulacion\punto 5.asc

Direct Newton iteration for .op point succeeded.

Date: Wed Aug 15 13:08:17 2018
Total elapsed time: 0.153 seconds.

tnom = 27
temp = 27
method = trap
totiter = 10
traniter = 0
tranpoints = 0
accept = 0
rejected = 0
matrix size = 43
fillins = 40
solver = Normal
Matrix Compiler1:     221 opcodes
Matrix Compiler2: 4.11 KB object code size
