Circuit: * C:\Users\Tomas\Desktop\ITBA\7° Cuatrimestre\Teoría de Circuitos\Trabajos Prácticos\TC_TP2\Ej5\Simulacion\punto 5.asc

Direct Newton iteration for .op point succeeded.

Date: Sat Sep 01 23:25:27 2018
Total elapsed time: 0.244 seconds.

tnom = 27
temp = 27
method = trap
totiter = 10
traniter = 0
tranpoints = 0
accept = 0
rejected = 0
matrix size = 43
fillins = 40
solver = Normal
Matrix Compiler1:     221 opcodes
Matrix Compiler2: 4.11 KB object code size
