Circuit: * C:\Users\Tomas\Desktop\ITBA\7° Cuatrimestre\Teoría de Circuitos\Trabajos Prácticos\TC_TP2\Ej5\Simulacion\punto 5.asc

Direct Newton iteration for .op point succeeded.
Heightened Def Con from 1.49655e-009 to 1.49728e-009
Heightened Def Con from 1.50209e-009 to 5.50209e-009

Date: Fri Aug 24 14:43:34 2018
Total elapsed time: 14.173 seconds.

tnom = 27
temp = 27
method = modified trap
totiter = 2740950
traniter = 2740940
tranpoints = 549722
accept = 366722
rejected = 183002
matrix size = 43
fillins = 40
solver = Normal
Matrix Compiler1: 3.95 KB object code size  1.6/1.1/[0.3]
Matrix Compiler2: 4.09 KB object code size  0.5/1.0/[0.3]

