Circuit: * C:\Users\rochi\Google Drive\Materias\Teoría de circuitos\TPs\TC_TP2\Ej4\Spice\tp2ej4integ.asc

Direct Newton iteration failed to find .op point.  (Use ".option noopiter" to skip.)
Starting Gmin stepping
Gmin = 10
vernier = 0.5
vernier = 0.25
vernier = 0.125
Gmin = 5.841
vernier = 0.0625
vernier = 0.03125
vernier = 0.015625
vernier = 0.0078125
Gmin = 5.89627
vernier = 0.00390625
vernier = 0.00195313
vernier = 0.000976563
vernier = 0.000488281
Gmin = 0
Gmin stepping succeeded in finding the operating point.


Date: Wed Aug 29 19:45:49 2018
Total elapsed time: 0.072 seconds.

tnom = 27
temp = 27
method = trap
totiter = 1595
traniter = 0
tranpoints = 0
accept = 0
rejected = 0
matrix size = 29
fillins = 27
solver = Normal
Matrix Compiler1:     121 opcodes
Matrix Compiler2: off  [0.4]/0.6/0.7

