Circuit: * C:\Users\rochi\Google Drive\Materias\Teoría de circuitos\TPs\TC_TP2\Ej4\Spice\tp2ej4deriv.asc

Direct Newton iteration failed to find .op point.  (Use ".option noopiter" to skip.)
Starting Gmin stepping
Gmin = 10
vernier = 0.5
vernier = 0.25
vernier = 0.125
Gmin = 5.841
vernier = 0.0625
vernier = 0.03125
vernier = 0.015625
vernier = 0.0078125
Gmin = 5.97672
vernier = 0.00390625
vernier = 0.00195313
vernier = 0.000976563
vernier = 0.000488281
Gmin = 5.98328
Gmin = 0
Gmin stepping succeeded in finding the operating point.


Date: Mon Sep 03 20:40:56 2018
Total elapsed time: 0.107 seconds.

tnom = 27
temp = 27
method = trap
totiter = 1548
traniter = 0
tranpoints = 0
accept = 0
rejected = 0
matrix size = 29
fillins = 43
solver = Normal
Matrix Compiler1:     168 opcodes
Matrix Compiler2:     232 opcodes  0.5/[0.5]/1.3

