Circuit: * C:\Users\rochi\Google Drive\Materias\Teoría de circuitos\TPs\TC_TP2\Ej4\Spice\tp2ej4integ.asc

Direct Newton iteration for .op point succeeded.

Date: Tue Aug 14 17:31:31 2018
Total elapsed time: 0.266 seconds.

tnom = 27
temp = 27
method = modified trap
totiter = 4963
traniter = 4940
tranpoints = 2455
accept = 2183
rejected = 272
matrix size = 28
fillins = 32
solver = Normal
Matrix Compiler1: 2.75 KB object code size  1.9/1.2/[0.8]
Matrix Compiler2: 2.85 KB object code size  0.9/1.3/[0.6]

