Circuit: * C:\Users\rochi\Google Drive\Materias\Teoría de circuitos\TPs\TC_TP2\Ej4\Spice\tp2ej4integ.asc

Direct Newton iteration for .op point succeeded.

Date: Tue Sep 04 15:12:24 2018
Total elapsed time: 0.211 seconds.

tnom = 27
temp = 27
method = trap
totiter = 39
traniter = 0
tranpoints = 0
accept = 0
rejected = 0
matrix size = 28
fillins = 45
solver = Normal
Matrix Compiler1:     196 opcodes
Matrix Compiler2:     228 opcodes
