Circuit: * C:\Users\rochi\Google Drive\Materias\Teoría de circuitos\TPs\TC_TP2\Ej4\Spice\tp2ej4deriv.asc

Direct Newton iteration failed to find .op point.  (Use ".option noopiter" to skip.)
Starting Gmin stepping
Gmin = 10
vernier = 0.5
vernier = 0.25
vernier = 0.125
Gmin = 5.841
vernier = 0.0625
vernier = 0.03125
vernier = 0.015625
vernier = 0.0078125
Gmin = 5.97672
vernier = 0.00390625
vernier = 0.00195313
vernier = 0.000976563
vernier = 0.000488281
Gmin = 5.98328
Gmin = 0
Gmin stepping failed

Starting source stepping with srcstepmethod=0
Source Step = 3.0303%
Source Step = 33.3333%
Source Step = 63.6364%
Source Step = 93.9394%
Source stepping succeeded in finding the operating point.


Date: Tue Aug 14 17:28:53 2018
Total elapsed time: 0.483 seconds.

tnom = 27
temp = 27
method = modified trap
totiter = 5217
traniter = 3513
tranpoints = 1730
accept = 1612
rejected = 118
matrix size = 28
fillins = 52
solver = Normal
Matrix Compiler1: 3.65 KB object code size  2.9/10.5/[1.1]
Matrix Compiler2: 3.18 KB object code size  0.9/1.0/[0.8]

