Circuit: * C:\Users\rochi\Google Drive\Materias\Teoría de circuitos\TPs\TC_TP2\Ej2\Spice\tc_tp2_ej2.asc

Direct Newton iteration failed to find .op point.  (Use ".option noopiter" to skip.)
Starting Gmin stepping
Gmin = 10
vernier = 0.5
vernier = 0.25
vernier = 0.125
Gmin = 5.841
vernier = 0.0625
vernier = 0.03125
vernier = 0.015625
vernier = 0.0078125
Gmin = 5.97672
vernier = 0.00390625
vernier = 0.00195313
vernier = 0.000976563
vernier = 0.000488281
Gmin = 5.98328
Gmin = 0
Gmin stepping succeeded in finding the operating point.


Date: Thu Aug 16 21:24:14 2018
Total elapsed time: 0.125 seconds.

tnom = 27
temp = 27
method = modified trap
totiter = 3576
traniter = 2094
tranpoints = 1048
accept = 1047
rejected = 1
matrix size = 29
fillins = 44
solver = Normal
Matrix Compiler1: 3.77 KB object code size  0.9/0.4/[0.4]
Matrix Compiler2: 3.12 KB object code size  0.7/0.6/[0.5]

