Questionable use of curly braces in "b1 p001 n003 i={70*i(v1)}"
    Error: undefined symbol in: "70*[i](v1)"
Circuit: * C:\Users\Tomas\Desktop\ITBA\7° Cuatrimestre\Teoría de Circuitos\Trabajos Prácticos\TC_TP2\Ej5\Draft1.asc

Direct Newton iteration for .op point succeeded.

Date: Mon Aug 20 14:46:24 2018
Total elapsed time: 0.053 seconds.

tnom = 27
temp = 27
method = modified trap
totiter = 2099
traniter = 2096
tranpoints = 1049
accept = 1049
rejected = 0
matrix size = 6
fillins = 1
solver = Normal
Matrix Compiler1: 200 bytes object code size  0.1/0.0/[0.0]
Matrix Compiler2:      34 opcodes  0.1/[0.1]/0.1

